23

C -0.75343 2.37475 0.00000
C -1.06171 3.75226 0.00000
C 0.00000 4.64658 0.00000
C 1.33544 4.19533 0.00000
C 1.57012 2.82640 0.00000
N 0.54531 1.96702 0.00000
H -0.20396 5.72060 0.00000
H -2.10364 4.07327 0.00000
H 2.17070 4.89586 0.00000
H 2.57570 2.39869 0.00000
O -1.56684 1.36142 0.00000
Pd 0.00000 0.00000 0.00000
C 0.75343 -2.37475 0.00000
C 1.06171 -3.75226 0.00000
C 0.00000 -4.64658 0.00000
C -1.33544 -4.19533 0.00000
C -1.57012 -2.82640 0.00000
N -0.54531 -1.96702 0.00000
H 0.20396 -5.72060 0.00000
H 2.10364 -4.07327 0.00000
H -2.17070 -4.89586 0.00000
H -2.57570 -2.39869 0.00000
O 1.56684 -1.36142 0.00000
